4
C3S+_2 (2-SG / C*V)
 S     0.000000     0.000000     1.475956
 C     0.000000     0.000000    -0.014712
 C     0.000000     0.000000    -1.354584
 C     0.000000     0.000000    -2.566584

-------- ENERGY AND PROPERTIES --------

 Rotational constants:       0.0000000       2.9602970       2.9602970 GHz

 EROCCSD(T)/aug-cc-pVTZ = -511.31382767 Eh

 MU_X      MU_Y      MU_Z       MU
 0.000    0.000    -0.975    0.975
