13
C8H5+_1 (1-A' / CS)
 H    -1.060253     4.831868     0.000000
 H     0.468138     4.883757     0.894773
 H     0.468138     4.883757    -0.894773
 H     0.020100    -5.151468     0.933364
 H     0.020100    -5.151468    -0.933364
 C    -0.019045     4.495858     0.000000
 C    -0.006068     3.060024     0.000000
 C    -0.004356     1.843307     0.000000
 C     0.000000     0.512783     0.000000
 C     0.003857    -0.721669    -0.000000
 C     0.008516    -2.029520    -0.000000
 C     0.013051    -3.279691    -0.000000
 C     0.018007    -4.597166    -0.000000

-------- ENERGY AND PROPERTIES --------

 Rotational constants:       102.2684223       0.5244095       0.5234331 GHz

 ECCSD(T)/aug-cc-pVTZ = -306.79831679 Eh

 MU_X      MU_Y      MU_Z       MU
 -0.036    -3.950    -0.000    3.950
