14
C9H5+_1 (1-A / C1)
 H     5.508882    -0.666959    -0.772893
 H     5.520450    -0.299336     0.973703
 H     5.482750     1.014418    -0.220923
 H    -5.772474     0.943328     0.001399
 H    -5.778669    -0.928698     0.001406
 C     5.132822     0.003291     0.001272
 C     3.695145    -0.002882     0.002970
 C     2.480350    -0.002594     0.001003
 C     1.146266    -0.003942    -0.000229
 C    -0.084819    -0.004699    -0.001073
 C    -1.395949    -0.003963    -0.001200
 C    -2.642693    -0.002472    -0.000956
 C    -3.934337     0.001321     0.000032
 C    -5.223608     0.005481     0.001065

-------- ENERGY AND PROPERTIES --------

 Rotational constants:       102.0956137       0.3742789       0.3737983 GHz

 ECCSD(T)/aug-cc-pVTZ = -344.80982529 Eh

 MU_X      MU_Y      MU_Z       MU
 -3.961    0.044    -0.020    3.961
