3
H2Cl+_1 (1-A1 / C2V)
 H     0.000000     1.396534    -0.229161
Cl    -0.000000     0.000000     0.026960
 H    -0.000000    -1.396534    -0.229161

-------- ENERGY AND PROPERTIES --------

 Rotational constants:       4042.5005143       128.5579782       124.5956378 GHz

 ECCSD(T)/aug-cc-pVTZ = -460.48168334 Eh

 MU_X      MU_Y      MU_Z       MU
 -0.000    0.000    -0.973    0.973
